
This summary file was generated by TurbSim (v2.00.08a-bjj, 18-Jul-2017) on 20-Feb-2019 at 17:21:50.


Runtime Options:

         1  Random seed #1
         1  Random seed #2
         F  Output binary HH turbulence parameters?
         F  Output formatted turbulence parameters?
         F  Output AeroDyn HH files?
         T  Output AeroDyn FF files?
         T  Output BLADED FF files?
         T  Output tower data?
         T  Output formatted FF files?
         F  Output coherent turbulence time step file?
         T  Clockwise rotation when looking downwind?
 0 -  NONE  IEC turbulence models scaled to exact specified standard deviation


Turbine/Model Specifications:

         2  Vertical grid-point matrix dimension
         2  Horizontal grid-point matrix dimension
     0.100  Time step [seconds]
    10.000  Analysis time [seconds]
    10.000  Usable output time [seconds]
    90.000  Hub height [m]
   145.000  Grid height [m]
   145.000  Grid width [m]
     8.000  Vertical flow angle [degrees]
     0.000  Horizontal flow angle [degrees]


Meteorological Boundary Conditions:

    IECKAI  IEC Kaimal spectral model
         1  IEC standard: IEC 61400-1 Ed. 3: 2005
         A  IEC turbulence characteristic
      1ETM  IEC Extreme Turbulence Model
     2.000  IEC Extreme Turbulence Model (ETM) "c" parameter [m/s]
       PL   Wind profile type
    90.000  Reference height [m]
    10.000  Reference wind speed [m/s]
       N/A  Jet height [m]
     0.200  Power law exponent
     0.030  Surface roughness length [m]


Non-IEC Meteorological Boundary Conditions:

       N/A  Site latitude [degrees]
       N/A  Gradient Richardson number
       N/A  Friction or shear velocity [m/s]
       N/A  Mixing layer depth [m]
       N/A  Mean hub u'w' Reynolds stress
       N/A  Mean hub u'v' Reynolds stress
       N/A  Mean hub v'w' Reynolds stress


Spatial Coherence Models:

       IEC  u-component coherence model
       IEC  v-component coherence model
       IEC  w-component coherence model
(   12.000, 0.353E-03)  u-component coherence parameters
(*********,  0.00    )  v-component coherence parameters
(*********,  0.00    )  w-component coherence parameters
       N/A  Coherence exponent


You have requested that the following file(s) be generated:

   NTM_orig2.bts (AeroDyn/TurbSim full-field wind file)
   NTM_orig2.wnd (AeroDyn/BLADED full-field wnd file)
   NTM_orig2.twr (binary tower file)
   NTM_orig2.u (formatted full-field U-component file)
   NTM_orig2.v (formatted full-field V-component file)
   NTM_orig2.w (formatted full-field W-component file)


Turbulence Simulation Scaling Parameter Summary:

   Turbulence model used                            =  IEC Kaimal
   Turbulence characteristic                        =  1A
   IEC turbulence type                              =  Extreme Turbulence Model
   Reference wind speed average over 10 minutes     =   50.000 m/s
   Annual wind speed average at hub height          =   10.000 m/s
   IEC standard                                     =  IEC 61400-1 Ed. 3: 2005
   Mean wind speed at hub height                    =   10.000 m/s
   Expected value of turbulence intensity at 15 m/s =   16.000%
   Characteristic value of standard deviation       =    3.384 m/s
   Turbulence scale                                 =   42.000 m
   u-component integral scale                       =  340.200 m
   Coherency scale                                  =  340.200 m
   Characteristic value of hub turbulence intensity =   33.843%
   Gradient Richardson number                       =    0.000

   Wind profile type                                =  Power law
   Power law exponent                               =    0.200
   Mean shear across rotor disk                     =    0.028 (m/s)/m
   Assumed rotor diameter                           =  145.000 m
   Surface roughness length                         =    0.030 m

   Nyquist frequency of turbulent wind field        =    5.000 Hz

   Number of time steps in the FFT                  =      100
   Number of time steps output                      =      100
   Number of points simulated                       =        6


Mean Flow Angles:

   Vertical   =   8.0 degrees
   Horizontal =   0.0 degrees

Mean Wind Speed Profile:

   Height    Wind Speed   Horizontal Angle  Vertical Angle  U-comp (X)   V-comp (Y)   W-comp (Z)
     (m)        (m/s)         (degrees)       (degrees)       (m/s)        (m/s)        (m/s)   
   ------    ----------   ----------------  --------------  ----------   ----------   ----------
    162.5       11.25            0.00            8.00         11.14         0.00         1.57
     90.0       10.00            0.00            8.00          9.90         0.00         1.39
     17.5        7.21            0.00            8.00          7.14         0.00         1.00


Harvested Random Seeds after Generation of the Random Numbers:

   1318173495 Harvested seed # 1
    525034338 Harvested seed # 2
    976262614 Harvested seed # 3
  -1287687515 Harvested seed # 4
   -442834650 Harvested seed # 5
   1242624115 Harvested seed # 6
   -535593602 Harvested seed # 7
   1644031707 Harvested seed # 8
   -232680440 Harvested seed # 9
    234441632 Harvested seed #10
    449701286 Harvested seed #11
   1196869854 Harvested seed #12
    907218446 Harvested seed #13
    137932409 Harvested seed #14
   1398760938 Harvested seed #15
   1196034131 Harvested seed #16
  -1150885031 Harvested seed #17
   -712845865 Harvested seed #18
  -1264764280 Harvested seed #19
   2100372882 Harvested seed #20
   1615273526 Harvested seed #21
  -1969464547 Harvested seed #22
   1561675601 Harvested seed #23
    538646255 Harvested seed #24
    111567867 Harvested seed #25
     55121059 Harvested seed #26
    129227796 Harvested seed #27
    -28044337 Harvested seed #28
    312188291 Harvested seed #29
  -1023546586 Harvested seed #30
   -937842721 Harvested seed #31
      5647041 Harvested seed #32
            5 Harvested seed #33


Hub-Height Simulated Turbulence Statistical Summary:

   Type of Wind        Min (m/s)   Mean (m/s)    Max (m/s)  Sigma (m/s)       TI (%)
   ----------------    ---------   ----------    ---------  -----------       ------
   Longitudinal (u)         6.67        10.00        13.25        1.399       13.985
   Lateral (v)             -3.73        -0.00         3.63        1.540       15.404
   Vertical (w)            -2.85         0.00         2.90        1.304       13.044
   U component              6.40         9.90        13.10        1.378       13.916
   V component             -3.73        -0.00         3.63        1.540       15.555
   W component             -1.56         1.39         4.16        1.326       13.390
   Horizontal (U&V)         6.40        10.02        13.11        1.369       13.656
   Total                    6.84        10.20        13.29        1.388       13.602

                       Min Reynolds     Mean Reynolds    Max Reynolds    Correlation
   Product             Stress (m/s)^2   Stress (m/s)^2   Stress (m/s)^2  Coefficient
   ----------------    --------------   --------------   --------------  -----------
   u'w'                     -5.005             0.188             5.910         0.103
   u'v'                     -3.453            -0.197             4.169        -0.091
   v'w'                     -6.927            -0.521             2.854        -0.259


   Friction Velocity (Ustar)  =      0.433 m/s
   Maximum Instantaneous TKE  =      7.748 (m/s)^2
   Maximum Instantaneous CTKE =      3.730 (m/s)^2


Grid Point Variance Summary:

   Y-coord  -72.50   72.50

   Height   Standard deviation at grid points for the u component:
   162.50    1.399   1.399
    17.50    1.399   1.399

   Height   Standard deviation at grid points for the v component:
   162.50    1.540   1.540
    17.50    1.540   1.540

   Height   Standard deviation at grid points for the w component:
   162.50    1.304   1.304
    17.50    1.304   1.304

   Mean standard deviation across all grid points:
      u component:    1.399 m/s
      v component:    1.540 m/s
      w component:    1.304 m/s


U-component (X) statistics from the interpolated hub point:

   Mean =   9.1409 m/s
   TI   =  10.0741 %


Normalizing Parameters for Binary Data (approximate statistics):

   UBar  =  10.0000 m/s
   TI(u) =  13.9851 %
   TI(v) =  15.4039 %
   TI(w) =  13.0440 %

   Height Offset =   0.0000 m
   Grid Base     =  17.5000 m

Creating a PERIODIC output file.


Processing complete.  3.00000E-02 CPU seconds used.
