
This summary file was generated by TurbSim (v2.01.00-max, 20-02-2019) on 22-Feb-2019 at 10:21:59.


Runtime Options:

         1  Random seed #1
         1  Random seed #2
         F  Output binary HH turbulence parameters?
         F  Output formatted turbulence parameters?
         F  Output AeroDyn HH files?
         T  Output AeroDyn FF files?
         T  Output BLADED FF files?
         T  Output tower data?
         T  Output formatted FF files?
         F  Output coherent turbulence time step file?
         T  Clockwise rotation when looking downwind?
 0 -  NONE  IEC turbulence models scaled to exact specified standard deviation


Turbine/Model Specifications:

         3  Vertical grid-point matrix dimension
         3  Horizontal grid-point matrix dimension
     0.100  Time step [seconds]
    10.000  Analysis time [seconds]
    10.000  Usable output time [seconds]
    90.000  Hub height [m]
   145.000  Grid height [m]
   145.000  Grid width [m]
     8.000  Vertical flow angle [degrees]
     0.000  Horizontal flow angle [degrees]


Meteorological Boundary Conditions:

    IECKAI  IEC Kaimal spectral model
         1  IEC standard: IEC 61400-1 Ed. 3: 2005
         A  IEC turbulence characteristic
      1ETM  IEC Extreme Turbulence Model
     2.000  IEC Extreme Turbulence Model (ETM) "c" parameter [m/s]
       PL   Wind profile type
    90.000  Reference height [m]
    10.000  Reference wind speed [m/s]
       N/A  Jet height [m]
     0.200  Power law exponent
     0.030  Surface roughness length [m]


Non-IEC Meteorological Boundary Conditions:

       N/A  Site latitude [degrees]
       N/A  Gradient Richardson number
       N/A  Friction or shear velocity [m/s]
       N/A  Mixing layer depth [m]
       N/A  Mean hub u'w' Reynolds stress
       N/A  Mean hub u'v' Reynolds stress
       N/A  Mean hub v'w' Reynolds stress


Spatial Coherence Models:

       IEC  u-component coherence model
       IEC  v-component coherence model
       IEC  w-component coherence model
(   12.000, 0.353E-03)  u-component coherence parameters
(*********,  0.00    )  v-component coherence parameters
(*********,  0.00    )  w-component coherence parameters
       N/A  Coherence exponent


You have requested that the following file(s) be generated:

   NTM_orig.bts (AeroDyn/TurbSim full-field wind file)
   NTM_orig.wnd (AeroDyn/BLADED full-field wnd file)
   NTM_orig.twr (binary tower file)
   NTM_orig.u (formatted full-field U-component file)
   NTM_orig.v (formatted full-field V-component file)
   NTM_orig.w (formatted full-field W-component file)


Turbulence Simulation Scaling Parameter Summary:

   Turbulence model used                            =  IEC Kaimal
   Turbulence characteristic                        =  1A
   IEC turbulence type                              =  Extreme Turbulence Model
   Reference wind speed average over 10 minutes     =   50.000 m/s
   Annual wind speed average at hub height          =   10.000 m/s
   IEC standard                                     =  IEC 61400-1 Ed. 3: 2005
   Mean wind speed at hub height                    =   10.000 m/s
   Expected value of turbulence intensity at 15 m/s =   16.000%
   Characteristic value of standard deviation       =    3.384 m/s
   Turbulence scale                                 =   42.000 m
   u-component integral scale                       =  340.200 m
   Coherency scale                                  =  340.200 m
   Characteristic value of hub turbulence intensity =   33.843%
   Gradient Richardson number                       =    0.000

   Wind profile type                                =  Power law
   Power law exponent                               =    0.200
   Mean shear across rotor disk                     =    0.028 (m/s)/m
   Assumed rotor diameter                           =  145.000 m
   Surface roughness length                         =    0.030 m

   Nyquist frequency of turbulent wind field        =    5.000 Hz

   Number of time steps in the FFT                  =      100
   Number of time steps output                      =      100
   Number of points simulated                       =        9


Mean Flow Angles:

   Vertical   =   8.0 degrees
   Horizontal =   0.0 degrees

Mean Wind Speed Profile:

   Height    Wind Speed   Horizontal Angle  Vertical Angle  U-comp (X)   V-comp (Y)   W-comp (Z)
     (m)        (m/s)         (degrees)       (degrees)       (m/s)        (m/s)        (m/s)   
   ------    ----------   ----------------  --------------  ----------   ----------   ----------
    162.5       11.25            0.00            8.00         11.14         0.00         1.57
     90.0       10.00            0.00            8.00          9.90         0.00         1.39
     17.5        7.21            0.00            8.00          7.14         0.00         1.00


Harvested Random Seeds after Generation of the Random Numbers:

  -1393500040 Harvested seed # 1
    405303977 Harvested seed # 2
    365289097 Harvested seed # 3
   1975046797 Harvested seed # 4
    636789154 Harvested seed # 5
  -1494248729 Harvested seed # 6
     99058866 Harvested seed # 7
  -1053236677 Harvested seed # 8
  -1925746302 Harvested seed # 9
   -207890348 Harvested seed #10
   1965076560 Harvested seed #11
  -1548706590 Harvested seed #12
  -1969122392 Harvested seed #13
   1555379746 Harvested seed #14
    919548614 Harvested seed #15
   1153086274 Harvested seed #16
  -1339532990 Harvested seed #17
   1033520985 Harvested seed #18
    718774283 Harvested seed #19
  -1602109221 Harvested seed #20
   1495607293 Harvested seed #21
   -623266040 Harvested seed #22
  -1095100446 Harvested seed #23
  -1754762876 Harvested seed #24
   1328309498 Harvested seed #25
    142233199 Harvested seed #26
  -1332053533 Harvested seed #27
  -2146807526 Harvested seed #28
   -730523511 Harvested seed #29
   1217492200 Harvested seed #30
  -1552040558 Harvested seed #31
  -1931506249 Harvested seed #32
            7 Harvested seed #33


Hub-Height Simulated Turbulence Statistical Summary:

   Type of Wind        Min (m/s)   Mean (m/s)    Max (m/s)  Sigma (m/s)       TI (%)
   ----------------    ---------   ----------    ---------  -----------       ------
   Longitudinal (u)         6.67        10.00        13.25        1.399       13.985
   Lateral (v)             -3.97         0.00         2.67        1.540       15.404
   Vertical (w)            -2.30        -0.00         4.19        1.304       13.044
   U component              6.43         9.90        13.11        1.384       13.974
   V component             -3.97         0.00         2.67        1.540       15.555
   W component             -0.86         1.39         5.44        1.320       13.330
   Horizontal (U&V)         6.61        10.02        13.35        1.414       14.115
   Total                    6.97        10.20        13.48        1.418       13.904

                       Min Reynolds     Mean Reynolds    Max Reynolds    Correlation
   Product             Stress (m/s)^2   Stress (m/s)^2   Stress (m/s)^2  Coefficient
   ----------------    --------------   --------------   --------------  -----------
   u'w'                     -4.226             0.131             4.107         0.072
   u'v'                     -5.148             0.809             8.184         0.376
   v'w'                     -4.915             0.495             6.588         0.246


   Friction Velocity (Ustar)  =      0.362 m/s
   Maximum Instantaneous TKE  =     10.160 (m/s)^2
   Maximum Instantaneous CTKE =      4.399 (m/s)^2


Grid Point Variance Summary:

   Y-coord  -72.50    0.00   72.50

   Height   Standard deviation at grid points for the u component:
   162.50    1.399   1.399   1.398
    90.00    1.399   1.399   1.399
    17.50    1.399   1.399   1.398

   Height   Standard deviation at grid points for the v component:
   162.50    1.540   1.540   1.540
    90.00    1.540   1.540   1.540
    17.50    1.540   1.540   1.540

   Height   Standard deviation at grid points for the w component:
   162.50    1.304   1.304   1.304
    90.00    1.304   1.304   1.304
    17.50    1.304   1.304   1.304

   Mean standard deviation across all grid points:
      u component:    1.399 m/s
      v component:    1.540 m/s
      w component:    1.304 m/s


U-component (X) statistics from the interpolated hub point:

   Mean =   9.9027 m/s
   TI   =  13.9741 %


Normalizing Parameters for Binary Data (approximate statistics):

   UBar  =  10.0000 m/s
   TI(u) =  13.9855 %
   TI(v) =  15.4039 %
   TI(w) =  13.0440 %

   Height Offset =   0.0000 m
   Grid Base     =  17.5000 m

Creating a PERIODIC output file.


Processing complete.  4.60000E-02 CPU seconds used.
